data_MgMOF-74

_audit_creation_method RASPA-1.0
_audit_creation_date 2020-3-18
_audit_author_name 'Haoyuan Chen'

_cell_length_a    26.136
_cell_length_b    26.136
_cell_length_c    6.942
_cell_angle_alpha 90
_cell_angle_beta  90
_cell_angle_gamma 120
_cell_volume      32853.6

_symmetry_cell_setting          trigonal
_symmetry_space_group_name_Hall '-R 3'
_symmetry_space_group_name_H-M  'R -3'
_symmetry_Int_Tables_number     148

loop_
_symmetry_equiv_pos_as_xyz
 'x,y,z'
 '-y,x-y,z'
 '-x+y,-x,z'
 '-x,-y,-z'
 'y,-x+y,-z'
 'x-y,x,-z'
 'x+2/3,y+1/3,z+1/3'
 '-y+2/3,x-y+1/3,z+1/3'
 '-x+y+2/3,-x+1/3,z+1/3'
 '-x+2/3,-y+1/3,-z+1/3'
 'y+2/3,-x+y+1/3,-z+1/3'
 'x-y+2/3,x+1/3,-z+1/3'
 'x+1/3,y+2/3,z+2/3'
 '-y+1/3,x-y+2/3,z+2/3'
 '-x+y+1/3,-x+2/3,z+2/3'
 '-x+1/3,-y+2/3,-z+2/3'
 'y+1/3,-x+y+2/3,-z+2/3'
 'x-y+1/3,x+2/3,-z+2/3'

loop_
_atom_site_label
_atom_site_type_symbol
_atom_site_fract_x
_atom_site_fract_y
_atom_site_fract_z
_atom_site_charge
Z0       Mg     0.641590000000     0.685140000000     0.471890000000     0     
O1       O      0.969430000000     0.297760000000     0.360380000000     0     
O2       O      0.927630000000     0.230480000000     0.610200000000     0     
O3       O      0.254940000000     0.942050000000     0.673830000000     0     
C1       C      0.926670000000     0.245800000000     0.427030000000     0     
C2       C      0.879180000000     0.207110000000     0.290830000000     0     
C3       C      0.212540000000     0.889260000000     0.754900000000     0     
C4       C      0.166300000000     0.847590000000     0.635580000000     0     
H1       H      0.165290000000     0.858030000000     0.479180000000     0     


