data_image0
_cell_length_a       39.97
_cell_length_b       40
_cell_length_c       16.58
_cell_angle_alpha    90
_cell_angle_beta     90
_cell_angle_gamma    120

_symmetry_space_group_name_H-M    "P 1"
_symmetry_int_tables_number       1

loop_
  _symmetry_equiv_pos_as_xyz
  'x, y, z'

loop_
  _atom_site_label
  _atom_site_occupancy
  _atom_site_fract_x
  _atom_site_fract_y
  _atom_site_fract_z
  _atom_site_thermal_displace_type
  _atom_site_B_iso_or_equiv
  _atom_site_type_symbol
  C1       1.0000 0.35550  0.51936  0.17272  Biso   1.000  C
  C2       1.0000 0.36579  0.49095  0.18439  Biso   1.000  C
  C3       1.0000 0.34641  0.46237  0.24301  Biso   1.000  C
  C4       1.0000 0.31768  0.46256  0.29004  Biso   1.000  C
  C5       1.0000 0.30746  0.49121  0.27943  Biso   1.000  C
  C6       1.0000 0.32661  0.51937  0.21949  Biso   1.000  C
  C7       1.0000 0.34513  0.46045  0.75782  Biso   1.000  C
  C8       1.0000 0.36318  0.48763  0.81960  Biso   1.000  C
  C9       1.0000 0.35244  0.51565  0.83258  Biso   1.000  C
  C10      1.0000 0.32437  0.51653  0.78451  Biso   1.000  C
  C11      1.0000 0.30644  0.48972  0.72164  Biso   1.000  C
  C12      1.0000 0.31719  0.46153  0.70953  Biso   1.000  C
  C13      1.0000 0.11558  0.46300  0.75526  Biso   1.000  C
  C14      1.0000 0.12498  0.49025  0.81695  Biso   1.000  C
  C15      1.0000 0.16389  0.51754  0.83093  Biso   1.000  C
  C16      1.0000 0.19273  0.51760  0.78390  Biso   1.000  C
  C17      1.0000 0.18357  0.49070  0.72111  Biso   1.000  C
  C18      1.0000 0.14446  0.46321  0.70804  Biso   1.000  C
  C19      1.0000 0.11554  0.46016  0.24163  Biso   1.000  C
  C20      1.0000 0.12454  0.48768  0.18065  Biso   1.000  C
  C21      1.0000 0.16323  0.51612  0.16833  Biso   1.000  C
  C22      1.0000 0.19226  0.51709  0.21626  Biso   1.000  C
  C23      1.0000 0.18348  0.48995  0.27839  Biso   1.000  C
  C24      1.0000 0.14462  0.46134  0.28986  Biso   1.000  C
  C25      1.0000 0.27609  0.49082  0.67237  Biso   1.000  C
  C26      1.0000 0.27651  0.49090  0.58665  Biso   1.000  C
  C27      1.0000 0.30816  0.49341  0.54146  Biso   1.000  C
  C28      1.0000 0.24569  0.49152  0.71262  Biso   1.000  C
  C29      1.0000 0.24532  0.49069  0.54338  Biso   1.000  C
  C30      1.0000 0.21491  0.49111  0.32776  Biso   1.000  C
  C31      1.0000 0.21445  0.49104  0.41344  Biso   1.000  C
  C32      1.0000 0.18533  0.49359  0.45863  Biso   1.000  C
  C33      1.0000 0.24613  0.49203  0.28752  Biso   1.000  C
  C34      1.0000 0.24536  0.49074  0.45682  Biso   1.000  C
  C35      1.0000 0.27654  0.49153  0.32803  Biso   1.000  C
  C36      1.0000 0.27669  0.49119  0.41372  Biso   1.000  C
  C37      1.0000 0.30825  0.49357  0.45907  Biso   1.000  C
  C38      1.0000 0.21479  0.49117  0.67222  Biso   1.000  C
  C39      1.0000 0.21442  0.49111  0.58648  Biso   1.000  C
  C40      1.0000 0.18538  0.49372  0.54103  Biso   1.000  C
  C41      1.0000 0.53832  0.88426  0.24498  Biso   1.000  C
  C42      1.0000 0.51093  0.87511  0.18361  Biso   1.000  C
  C43      1.0000 0.48357  0.83626  0.16930  Biso   1.000  C
  C44      1.0000 0.48340  0.80723  0.21585  Biso   1.000  C
  C45      1.0000 0.51029  0.81614  0.27859  Biso   1.000  C
  C46      1.0000 0.53795  0.85519  0.29177  Biso   1.000  C
  C47      1.0000 0.53815  0.88375  0.75893  Biso   1.000  C
  C48      1.0000 0.51023  0.87426  0.81930  Biso   1.000  C
  C49      1.0000 0.48196  0.83547  0.83072  Biso   1.000  C
  C50      1.0000 0.48163  0.80680  0.78264  Biso   1.000  C
  C51      1.0000 0.50925  0.81607  0.72126  Biso   1.000  C
  C52      1.0000 0.53758  0.85507  0.71044  Biso   1.000  C
  C53      1.0000 0.53740  0.65271  0.75624  Biso   1.000  C
  C54      1.0000 0.51001  0.63462  0.81766  Biso   1.000  C
  C55      1.0000 0.48279  0.64631  0.83198  Biso   1.000  C
  C56      1.0000 0.48266  0.67509  0.78507  Biso   1.000  C
  C57      1.0000 0.50944  0.69284  0.72196  Biso   1.000  C
  C58      1.0000 0.53707  0.68134  0.70908  Biso   1.000  C
  C59      1.0000 0.53938  0.65369  0.24280  Biso   1.000  C
  C60      1.0000 0.51203  0.63562  0.18136  Biso   1.000  C
  C61      1.0000 0.48427  0.64669  0.16817  Biso   1.000  C
  C62      1.0000 0.48371  0.67500  0.21588  Biso   1.000  C
  C63      1.0000 0.51055  0.69282  0.27876  Biso   1.000  C
  C64      1.0000 0.53852  0.68175  0.29097  Biso   1.000  C
  C65      1.0000 0.50878  0.78488  0.67216  Biso   1.000  C
  C66      1.0000 0.50909  0.78528  0.58638  Biso   1.000  C
  C67      1.0000 0.50662  0.81431  0.54083  Biso   1.000  C
  C68      1.0000 0.50811  0.75387  0.71264  Biso   1.000  C
  C69      1.0000 0.50954  0.75437  0.54336  Biso   1.000  C
  C70      1.0000 0.50961  0.72337  0.32775  Biso   1.000  C
  C71      1.0000 0.50937  0.72306  0.41359  Biso   1.000  C
  C72      1.0000 0.50646  0.69136  0.45909  Biso   1.000  C
  C73      1.0000 0.50911  0.75383  0.28729  Biso   1.000  C
  C74      1.0000 0.50973  0.75435  0.45669  Biso   1.000  C
  C75      1.0000 0.50954  0.78480  0.32747  Biso   1.000  C
  C76      1.0000 0.50943  0.78522  0.41329  Biso   1.000  C
  C77      1.0000 0.50674  0.81423  0.45838  Biso   1.000  C
  C78      1.0000 0.50878  0.72340  0.67264  Biso   1.000  C
  C79      1.0000 0.50895  0.72305  0.58680  Biso   1.000  C
  C80      1.0000 0.50622  0.69133  0.54158  Biso   1.000  C
  C81      1.0000 0.11557  0.65233  0.24479  Biso   1.000  C
  C82      1.0000 0.12500  0.63461  0.18286  Biso   1.000  C
  C83      1.0000 0.16393  0.64637  0.16859  Biso   1.000  C
  C84      1.0000 0.19275  0.67512  0.21566  Biso   1.000  C
  C85      1.0000 0.18355  0.69268  0.27880  Biso   1.000  C
  C86      1.0000 0.14443  0.68094  0.29207  Biso   1.000  C
  C87      1.0000 0.11547  0.65440  0.75781  Biso   1.000  C
  C88      1.0000 0.12470  0.63635  0.81945  Biso   1.000  C
  C89      1.0000 0.16351  0.64719  0.83229  Biso   1.000  C
  C90      1.0000 0.19242  0.67536  0.78433  Biso   1.000  C
  C91      1.0000 0.18346  0.69332  0.72165  Biso   1.000  C
  C92      1.0000 0.14444  0.68244  0.70964  Biso   1.000  C
  C93      1.0000 0.34675  0.88429  0.75532  Biso   1.000  C
  C94      1.0000 0.36592  0.87516  0.81462  Biso   1.000  C
  C95      1.0000 0.35525  0.83642  0.82727  Biso   1.000  C
  C96      1.0000 0.32627  0.80744  0.78084  Biso   1.000  C
  C97      1.0000 0.30730  0.81636  0.72031  Biso   1.000  C
  C98      1.0000 0.31783  0.85527  0.70882  Biso   1.000  C
  C99      1.0000 0.34459  0.88397  0.23992  Biso   1.000  C
  C100     1.0000 0.36364  0.87469  0.18061  Biso   1.000  C
  C101     1.0000 0.35354  0.83603  0.16950  Biso   1.000  C
  C102     1.0000 0.32520  0.80725  0.21739  Biso   1.000  C
  C103     1.0000 0.30645  0.81631  0.27818  Biso   1.000  C
  C104     1.0000 0.31646  0.85516  0.28825  Biso   1.000  C
  C105     1.0000 0.21483  0.72374  0.67233  Biso   1.000  C
  C106     1.0000 0.21439  0.72335  0.58658  Biso   1.000  C
  C107     1.0000 0.18535  0.69164  0.54142  Biso   1.000  C
  C108     1.0000 0.24601  0.75411  0.71248  Biso   1.000  C
  C109     1.0000 0.24526  0.75456  0.54315  Biso   1.000  C
  C110     1.0000 0.27598  0.78502  0.32751  Biso   1.000  C
  C111     1.0000 0.27634  0.78548  0.41322  Biso   1.000  C
  C112     1.0000 0.30794  0.81469  0.45830  Biso   1.000  C
  C113     1.0000 0.24566  0.75390  0.28729  Biso   1.000  C
  C114     1.0000 0.24518  0.75452  0.45657  Biso   1.000  C
  C115     1.0000 0.21474  0.72341  0.32774  Biso   1.000  C
  C116     1.0000 0.21434  0.72314  0.41349  Biso   1.000  C
  C117     1.0000 0.18540  0.69150  0.45901  Biso   1.000  C
  C118     1.0000 0.27639  0.78505  0.67191  Biso   1.000  C
  C119     1.0000 0.27657  0.78547  0.58619  Biso   1.000  C
  C120     1.0000 0.30807  0.81464  0.54072  Biso   1.000  C
  C121     1.0000 0.65171  0.53574  0.24702  Biso   1.000  C
  C122     1.0000 0.63152  0.50711  0.18899  Biso   1.000  C
  C123     1.0000 0.64115  0.47825  0.17671  Biso   1.000  C
  C124     1.0000 0.67024  0.47791  0.22217  Biso   1.000  C
  C125     1.0000 0.69033  0.50621  0.28129  Biso   1.000  C
  C126     1.0000 0.68065  0.53521  0.29272  Biso   1.000  C
  C127     1.0000 0.65070  0.53291  0.75255  Biso   1.000  C
  C128     1.0000 0.63124  0.50468  0.81184  Biso   1.000  C
  C129     1.0000 0.64264  0.47734  0.82704  Biso   1.000  C
  C130     1.0000 0.67225  0.47763  0.78224  Biso   1.000  C
  C131     1.0000 0.69132  0.50523  0.72126  Biso   1.000  C
  C132     1.0000 0.68039  0.53324  0.70812  Biso   1.000  C
  C133     1.0000 0.88365  0.53558  0.75296  Biso   1.000  C
  C134     1.0000 0.87529  0.50704  0.81119  Biso   1.000  C
  C135     1.0000 0.83686  0.47795  0.82318  Biso   1.000  C
  C136     1.0000 0.80739  0.47731  0.77737  Biso   1.000  C
  C137     1.0000 0.81549  0.50558  0.71834  Biso   1.000  C
  C138     1.0000 0.85413  0.53480  0.70700  Biso   1.000  C
  C139     1.0000 0.88262  0.53410  0.24851  Biso   1.000  C
  C140     1.0000 0.87416  0.50601  0.18917  Biso   1.000  C
  C141     1.0000 0.83548  0.47840  0.17371  Biso   1.000  C
  C142     1.0000 0.80594  0.47842  0.21810  Biso   1.000  C
  C143     1.0000 0.81418  0.50589  0.27920  Biso   1.000  C
  C144     1.0000 0.85304  0.53403  0.29282  Biso   1.000  C
  C145     1.0000 0.72218  0.50469  0.67278  Biso   1.000  C
  C146     1.0000 0.72161  0.50492  0.58708  Biso   1.000  C
  C147     1.0000 0.68981  0.50241  0.54237  Biso   1.000  C
  C148     1.0000 0.75274  0.50402  0.71245  Biso   1.000  C
  C149     1.0000 0.75272  0.50535  0.54319  Biso   1.000  C
  C150     1.0000 0.78258  0.50512  0.32733  Biso   1.000  C
  C151     1.0000 0.78313  0.50494  0.41298  Biso   1.000  C
  C152     1.0000 0.81214  0.50191  0.45757  Biso   1.000  C
  C153     1.0000 0.75155  0.50475  0.28749  Biso   1.000  C
  C154     1.0000 0.75249  0.50548  0.45674  Biso   1.000  C
  C155     1.0000 0.72135  0.50545  0.32865  Biso   1.000  C
  C156     1.0000 0.72123  0.50538  0.41425  Biso   1.000  C
  C157     1.0000 0.68968  0.50274  0.46007  Biso   1.000  C
  C158     1.0000 0.78362  0.50477  0.67120  Biso   1.000  C
  C159     1.0000 0.78370  0.50487  0.58562  Biso   1.000  C
  C160     1.0000 0.81249  0.50198  0.53987  Biso   1.000  C
  C161     1.0000 0.46431  0.11630  0.24836  Biso   1.000  C
  C162     1.0000 0.49228  0.12464  0.18863  Biso   1.000  C
  C163     1.0000 0.52083  0.16317  0.17527  Biso   1.000  C
  C164     1.0000 0.52145  0.19267  0.22094  Biso   1.000  C
  C165     1.0000 0.49375  0.18454  0.28145  Biso   1.000  C
  C166     1.0000 0.46506  0.14583  0.29410  Biso   1.000  C
  C167     1.0000 0.46472  0.11608  0.75150  Biso   1.000  C
  C168     1.0000 0.49210  0.12461  0.81259  Biso   1.000  C
  C169     1.0000 0.51939  0.16327  0.82882  Biso   1.000  C
  C170     1.0000 0.51964  0.19277  0.78393  Biso   1.000  C
  C171     1.0000 0.49287  0.18449  0.72128  Biso   1.000  C
  C172     1.0000 0.46511  0.14563  0.70652  Biso   1.000  C
  C173     1.0000 0.46405  0.34755  0.75272  Biso   1.000  C
  C174     1.0000 0.49220  0.36730  0.81193  Biso   1.000  C
  C175     1.0000 0.52069  0.35726  0.82561  Biso   1.000  C
  C176     1.0000 0.52115  0.32820  0.78039  Biso   1.000  C
  C177     1.0000 0.49336  0.30858  0.72011  Biso   1.000  C
  C178     1.0000 0.46468  0.31863  0.70732  Biso   1.000  C
  C179     1.0000 0.46478  0.34818  0.25117  Biso   1.000  C
  C180     1.0000 0.49193  0.36695  0.18967  Biso   1.000  C
  C181     1.0000 0.51959  0.35601  0.17372  Biso   1.000  C
  C182     1.0000 0.52025  0.32700  0.21875  Biso   1.000  C
  C183     1.0000 0.49344  0.30828  0.28117  Biso   1.000  C
  C184     1.0000 0.46553  0.31920  0.29610  Biso   1.000  C
  C185     1.0000 0.49399  0.21619  0.67316  Biso   1.000  C
  C186     1.0000 0.49449  0.21598  0.58753  Biso   1.000  C
  C187     1.0000 0.49752  0.18711  0.54244  Biso   1.000  C
  C188     1.0000 0.49444  0.24717  0.71340  Biso   1.000  C
  C189     1.0000 0.49431  0.24688  0.54420  Biso   1.000  C
  C190     1.0000 0.49457  0.27759  0.32887  Biso   1.000  C
  C191     1.0000 0.49495  0.27817  0.41449  Biso   1.000  C
  C192     1.0000 0.49807  0.31011  0.45959  Biso   1.000  C
  C193     1.0000 0.49501  0.24709  0.28850  Biso   1.000  C
  C194     1.0000 0.49447  0.24692  0.45776  Biso   1.000  C
  C195     1.0000 0.49460  0.21624  0.32912  Biso   1.000  C
  C196     1.0000 0.49477  0.21601  0.41473  Biso   1.000  C
  C197     1.0000 0.49762  0.18711  0.46013  Biso   1.000  C
  C198     1.0000 0.49421  0.27767  0.67269  Biso   1.000  C
  C199     1.0000 0.49462  0.27812  0.58712  Biso   1.000  C
  C200     1.0000 0.49786  0.31005  0.54187  Biso   1.000  C
  C201     1.0000 0.88369  0.34791  0.24676  Biso   1.000  C
  C202     1.0000 0.87524  0.36824  0.18905  Biso   1.000  C
  C203     1.0000 0.83679  0.35899  0.17760  Biso   1.000  C
  C204     1.0000 0.80738  0.33003  0.22329  Biso   1.000  C
  C205     1.0000 0.81557  0.30965  0.28171  Biso   1.000  C
  C206     1.0000 0.85423  0.31904  0.29255  Biso   1.000  C
  C207     1.0000 0.88308  0.34809  0.75318  Biso   1.000  C
  C208     1.0000 0.87450  0.36816  0.81127  Biso   1.000  C
  C209     1.0000 0.83584  0.35753  0.82552  Biso   1.000  C
  C210     1.0000 0.80640  0.32796  0.78098  Biso   1.000  C
  C211     1.0000 0.81478  0.30835  0.72104  Biso   1.000  C
  C212     1.0000 0.85360  0.31859  0.70870  Biso   1.000  C
  C213     1.0000 0.65177  0.11597  0.75145  Biso   1.000  C
  C214     1.0000 0.63227  0.12424  0.81154  Biso   1.000  C
  C215     1.0000 0.64242  0.16276  0.82552  Biso   1.000  C
  C216     1.0000 0.67141  0.19235  0.78026  Biso   1.000  C
  C217     1.0000 0.69088  0.18432  0.71937  Biso   1.000  C
  C218     1.0000 0.68064  0.14559  0.70604  Biso   1.000  C
  C219     1.0000 0.65133  0.11726  0.24902  Biso   1.000  C
  C220     1.0000 0.63153  0.12557  0.18972  Biso   1.000  C
  C221     1.0000 0.64239  0.16420  0.17449  Biso   1.000  C
  C222     1.0000 0.67191  0.19380  0.21890  Biso   1.000  C
  C223     1.0000 0.69133  0.18571  0.27985  Biso   1.000  C
  C224     1.0000 0.68079  0.14689  0.29335  Biso   1.000  C
  C225     1.0000 0.78322  0.27746  0.67302  Biso   1.000  C
  C226     1.0000 0.78376  0.27805  0.58737  Biso   1.000  C
  C227     1.0000 0.81296  0.30986  0.54259  Biso   1.000  C
  C228     1.0000 0.75216  0.24695  0.71300  Biso   1.000  C
  C229     1.0000 0.75294  0.24701  0.54373  Biso   1.000  C
  C230     1.0000 0.72225  0.21736  0.32786  Biso   1.000  C
  C231     1.0000 0.72177  0.21674  0.41356  Biso   1.000  C
  C232     1.0000 0.68986  0.18773  0.45841  Biso   1.000  C
  C233     1.0000 0.75280  0.24847  0.28795  Biso   1.000  C
  C234     1.0000 0.75304  0.24731  0.45725  Biso   1.000  C
  C235     1.0000 0.78382  0.27857  0.32902  Biso   1.000  C
  C236     1.0000 0.78408  0.27860  0.41459  Biso   1.000  C
  C237     1.0000 0.81316  0.31008  0.46029  Biso   1.000  C
  C238     1.0000 0.72181  0.21613  0.67203  Biso   1.000  C
  C239     1.0000 0.72157  0.21609  0.58641  Biso   1.000  C
  C240     1.0000 0.68978  0.18742  0.54072  Biso   1.000  C
  C241     1.0000 0.09391  0.49097  0.86555  Biso   1.000  C
  C242     1.0000 0.09370  0.60506  0.86926  Biso   1.000  C
  C243     1.0000 0.09392  0.60272  0.13462  Biso   1.000  C
  C244     1.0000 0.90587  0.50535  0.14284  Biso   1.000  C
  C245     1.0000 0.90662  0.39925  0.13964  Biso   1.000  C
  C246     1.0000 0.90609  0.40057  0.85753  Biso   1.000  C
  C247     1.0000 0.09342  0.48792  0.13113  Biso   1.000  C
  C248     1.0000 0.90673  0.50744  0.86052  Biso   1.000  C
  C249     1.0000 0.50888  0.60231  0.86537  Biso   1.000  C
  C250     1.0000 0.39446  0.48785  0.86934  Biso   1.000  C
  C251     1.0000 0.39787  0.49181  0.13676  Biso   1.000  C
  C252     1.0000 0.49174  0.39843  0.14163  Biso   1.000  C
  C253     1.0000 0.60012  0.50708  0.14026  Biso   1.000  C
  C254     1.0000 0.59865  0.50374  0.85803  Biso   1.000  C
  C255     1.0000 0.51155  0.60419  0.13176  Biso   1.000  C
  C256     1.0000 0.49187  0.39849  0.86057  Biso   1.000  C
  C257     1.0000 0.39802  0.90632  0.86252  Biso   1.000  C
  C258     1.0000 0.51003  0.90526  0.86936  Biso   1.000  C
  C259     1.0000 0.50992  0.90619  0.13550  Biso   1.000  C
  C260     1.0000 0.59932  0.09378  0.14317  Biso   1.000  C
  C261     1.0000 0.49177  0.09316  0.13924  Biso   1.000  C
  C262     1.0000 0.49256  0.09299  0.85954  Biso   1.000  C
  C263     1.0000 0.39536  0.90575  0.13166  Biso   1.000  C
  C264     1.0000 0.60129  0.09277  0.86089  Biso   1.000  C
  H1       1.0000 0.37084  0.54150  0.12718  Biso   1.000  H
  H2       1.0000 0.35420  0.44006  0.25076  Biso   1.000  H
  H3       1.0000 0.30242  0.44002  0.33498  Biso   1.000  H
  H4       1.0000 0.31905  0.54184  0.21106  Biso   1.000  H
  H5       1.0000 0.35348  0.43865  0.74815  Biso   1.000  H
  H6       1.0000 0.36680  0.53682  0.88033  Biso   1.000  H
  H7       1.0000 0.31653  0.53873  0.79430  Biso   1.000  H
  H8       1.0000 0.30296  0.43996  0.66233  Biso   1.000  H
  H9       1.0000 0.08529  0.44184  0.74473  Biso   1.000  H
  H10      1.0000 0.17095  0.53878  0.87862  Biso   1.000  H
  H11      1.0000 0.22291  0.53926  0.79432  Biso   1.000  H
  H12      1.0000 0.13687  0.44159  0.66087  Biso   1.000  H
  H13      1.0000 0.08546  0.43805  0.25079  Biso   1.000  H
  H14      1.0000 0.16991  0.53759  0.12131  Biso   1.000  H
  H15      1.0000 0.22222  0.53964  0.20713  Biso   1.000  H
  H16      1.0000 0.13742  0.43959  0.33660  Biso   1.000  H
  H17      1.0000 0.24521  0.49062  0.77842  Biso   1.000  H
  H18      1.0000 0.16321  0.49647  0.42616  Biso   1.000  H
  H19      1.0000 0.33312  0.49618  0.57390  Biso   1.000  H
  H20      1.0000 0.24589  0.49142  0.22172  Biso   1.000  H
  H21      1.0000 0.16333  0.49680  0.57324  Biso   1.000  H
  H22      1.0000 0.33328  0.49647  0.42669  Biso   1.000  H
  H23      1.0000 0.55960  0.91446  0.25584  Biso   1.000  H
  H24      1.0000 0.46230  0.82940  0.12171  Biso   1.000  H
  H25      1.0000 0.46164  0.77713  0.20510  Biso   1.000  H
  H26      1.0000 0.55960  0.86256  0.33883  Biso   1.000  H
  H27      1.0000 0.56021  0.91393  0.75106  Biso   1.000  H
  H28      1.0000 0.46024  0.82837  0.87744  Biso   1.000  H
  H29      1.0000 0.45930  0.77672  0.79118  Biso   1.000  H
  H30      1.0000 0.55971  0.86267  0.66434  Biso   1.000  H
  H31      1.0000 0.55867  0.64371  0.74597  Biso   1.000  H
  H32      1.0000 0.46148  0.63199  0.87955  Biso   1.000  H
  H33      1.0000 0.46088  0.68344  0.79558  Biso   1.000  H
  H34      1.0000 0.55867  0.69543  0.66186  Biso   1.000  H
  H35      1.0000 0.56138  0.64554  0.25163  Biso   1.000  H
  H36      1.0000 0.46305  0.63249  0.12039  Biso   1.000  H
  H37      1.0000 0.46177  0.68317  0.20577  Biso   1.000  H
  H38      1.0000 0.56028  0.69604  0.33781  Biso   1.000  H
  H39      1.0000 0.50871  0.75430  0.77846  Biso   1.000  H
  H40      1.0000 0.50346  0.66630  0.42678  Biso   1.000  H
  H41      1.0000 0.50362  0.83641  0.57298  Biso   1.000  H
  H42      1.0000 0.51024  0.75428  0.22151  Biso   1.000  H
  H43      1.0000 0.50294  0.66617  0.57398  Biso   1.000  H
  H44      1.0000 0.50374  0.83624  0.42586  Biso   1.000  H
  H45      1.0000 0.08525  0.64307  0.25549  Biso   1.000  H
  H46      1.0000 0.17100  0.63229  0.12065  Biso   1.000  H
  H47      1.0000 0.22295  0.68376  0.20496  Biso   1.000  H
  H48      1.0000 0.13681  0.69486  0.33945  Biso   1.000  H
  H49      1.0000 0.08529  0.64600  0.74823  Biso   1.000  H
  H50      1.0000 0.17042  0.63283  0.87987  Biso   1.000  H
  H51      1.0000 0.22249  0.68325  0.79406  Biso   1.000  H
  H52      1.0000 0.13698  0.69660  0.66249  Biso   1.000  H
  H53      1.0000 0.35473  0.91440  0.74685  Biso   1.000  H
  H54      1.0000 0.37036  0.82965  0.87343  Biso   1.000  H
  H55      1.0000 0.31847  0.77740  0.79011  Biso   1.000  H
  H56      1.0000 0.30268  0.86253  0.66356  Biso   1.000  H
  H57      1.0000 0.35228  0.91406  0.24730  Biso   1.000  H
  H58      1.0000 0.36860  0.82915  0.12341  Biso   1.000  H
  H59      1.0000 0.31783  0.77726  0.20924  Biso   1.000  H
  H60      1.0000 0.30146  0.86253  0.33365  Biso   1.000  H
  H61      1.0000 0.24575  0.75456  0.77828  Biso   1.000  H
  H62      1.0000 0.33281  0.83691  0.42572  Biso   1.000  H
  H63      1.0000 0.16330  0.66662  0.57388  Biso   1.000  H
  H64      1.0000 0.24526  0.75425  0.22150  Biso   1.000  H
  H65      1.0000 0.33309  0.83682  0.57299  Biso   1.000  H
  H66      1.0000 0.16341  0.66633  0.42687  Biso   1.000  H
  H67      1.0000 0.64458  0.55851  0.25513  Biso   1.000  H
  H68      1.0000 0.62525  0.45612  0.13145  Biso   1.000  H
  H69      1.0000 0.67729  0.45511  0.21311  Biso   1.000  H
  H70      1.0000 0.69650  0.55777  0.33724  Biso   1.000  H
  H71      1.0000 0.64213  0.55449  0.74206  Biso   1.000  H
  H72      1.0000 0.62749  0.45561  0.87344  Biso   1.000  H
  H73      1.0000 0.68032  0.45567  0.79290  Biso   1.000  H
  H74      1.0000 0.69563  0.55550  0.66268  Biso   1.000  H
  H75      1.0000 0.91349  0.55850  0.74501  Biso   1.000  H
  H76      1.0000 0.83072  0.45591  0.86856  Biso   1.000  H
  H77      1.0000 0.77758  0.45433  0.78618  Biso   1.000  H
  H78      1.0000 0.86074  0.55735  0.66248  Biso   1.000  H
  H79      1.0000 0.91268  0.55597  0.25894  Biso   1.000  H
  H80      1.0000 0.82919  0.45681  0.12716  Biso   1.000  H
  H81      1.0000 0.77595  0.45639  0.20696  Biso   1.000  H
  H82      1.0000 0.85985  0.55619  0.33840  Biso   1.000  H
  H83      1.0000 0.75337  0.50461  0.77828  Biso   1.000  H
  H84      1.0000 0.83389  0.49860  0.42467  Biso   1.000  H
  H85      1.0000 0.66479  0.49927  0.57513  Biso   1.000  H
  H86      1.0000 0.75172  0.50559  0.22168  Biso   1.000  H
  H87      1.0000 0.83453  0.49880  0.57188  Biso   1.000  H
  H88      1.0000 0.66461  0.49996  0.42807  Biso   1.000  H
  H89      1.0000 0.44186  0.08639  0.25794  Biso   1.000  H
  H90      1.0000 0.54250  0.16937  0.12893  Biso   1.000  H
  H91      1.0000 0.54404  0.22252  0.21098  Biso   1.000  H
  H92      1.0000 0.44293  0.13912  0.33972  Biso   1.000  H
  H93      1.0000 0.44351  0.08597  0.73950  Biso   1.000  H
  H94      1.0000 0.54055  0.16957  0.87637  Biso   1.000  H
  H95      1.0000 0.54140  0.22276  0.79580  Biso   1.000  H
  H96      1.0000 0.44358  0.13880  0.65946  Biso   1.000  H
  H97      1.0000 0.44154  0.35498  0.74352  Biso   1.000  H
  H98      1.0000 0.54244  0.37282  0.87173  Biso   1.000  H
  H99      1.0000 0.54369  0.32084  0.79038  Biso   1.000  H
  H100     1.0000 0.44245  0.30305  0.66196  Biso   1.000  H
  H101     1.0000 0.44338  0.35684  0.26318  Biso   1.000  H
  H102     1.0000 0.54067  0.37094  0.12608  Biso   1.000  H
  H103     1.0000 0.54223  0.31905  0.20698  Biso   1.000  H
  H104     1.0000 0.44408  0.30439  0.34326  Biso   1.000  H
  H105     1.0000 0.49327  0.24668  0.77917  Biso   1.000  H
  H106     1.0000 0.50153  0.33531  0.42716  Biso   1.000  H
  H107     1.0000 0.50073  0.16522  0.57489  Biso   1.000  H
  H108     1.0000 0.49394  0.24651  0.22271  Biso   1.000  H
  H109     1.0000 0.50113  0.33520  0.57430  Biso   1.000  H
  H110     1.0000 0.50087  0.16518  0.42784  Biso   1.000  H
  H111     1.0000 0.91354  0.35476  0.25435  Biso   1.000  H
  H112     1.0000 0.83058  0.37504  0.13272  Biso   1.000  H
  H113     1.0000 0.77755  0.32325  0.21485  Biso   1.000  H
  H114     1.0000 0.86089  0.30291  0.33650  Biso   1.000  H
  H115     1.0000 0.91311  0.35594  0.74378  Biso   1.000  H
  H116     1.0000 0.82949  0.37317  0.87116  Biso   1.000  H
  H117     1.0000 0.77642  0.32032  0.79103  Biso   1.000  H
  H118     1.0000 0.86041  0.30285  0.66407  Biso   1.000  H
  H119     1.0000 0.64421  0.08606  0.74146  Biso   1.000  H
  H120     1.0000 0.62701  0.16889  0.87212  Biso   1.000  H
  H121     1.0000 0.67880  0.22221  0.79072  Biso   1.000  H
  H122     1.0000 0.69602  0.13897  0.66017  Biso   1.000  H
  H123     1.0000 0.64338  0.08728  0.25937  Biso   1.000  H
  H124     1.0000 0.62696  0.17043  0.12813  Biso   1.000  H
  H125     1.0000 0.67966  0.22372  0.20783  Biso   1.000  H
  H126     1.0000 0.69628  0.14017  0.33874  Biso   1.000  H
  H127     1.0000 0.75242  0.24636  0.77882  Biso   1.000  H
  H128     1.0000 0.66470  0.16599  0.42579  Biso   1.000  H
  H129     1.0000 0.83499  0.33476  0.57536  Biso   1.000  H
  H130     1.0000 0.75330  0.24844  0.22211  Biso   1.000  H
  H131     1.0000 0.66456  0.16543  0.57282  Biso   1.000  H
  H132     1.0000 0.83537  0.33514  0.42818  Biso   1.000  H
  H133     1.0000 0.94362  0.40041  0.99621  Biso   1.000  H
  H134     1.0000 0.05629  0.52974  0.82730  Biso   1.000  H
  H135     1.0000 0.02702  0.61924  0.10089  Biso   1.000  H
  H136     1.0000 0.00137  0.60164  0.01874  Biso   1.000  H
  H137     1.0000 0.02100  0.39965  0.09430  Biso   1.000  H
  H138     1.0000 0.99884  0.49182  0.24429  Biso   1.000  H
  H139     1.0000 0.97861  0.52857  0.26654  Biso   1.000  H
  H140     1.0000 0.97337  0.44502  0.25584  Biso   1.000  H
  H141     1.0000 0.94369  0.54322  0.00415  Biso   1.000  H
  H142     1.0000 0.05617  0.52620  0.17334  Biso   1.000  H
  H143     1.0000 0.02153  0.62132  0.90638  Biso   1.000  H
  H144     1.0000 0.00117  0.39947  0.98164  Biso   1.000  H
  H145     1.0000 0.02699  0.40760  0.89975  Biso   1.000  H
  H146     1.0000 0.97358  0.52838  0.74455  Biso   1.000  H
  H147     1.0000 0.97874  0.45007  0.73368  Biso   1.000  H
  H148     1.0000 0.99898  0.50691  0.75618  Biso   1.000  H
  H149     1.0000 0.59776  0.53908  0.99810  Biso   1.000  H
  H150     1.0000 0.46984  0.52623  0.82871  Biso   1.000  H
  H151     1.0000 0.39741  0.39856  0.01794  Biso   1.000  H
  H152     1.0000 0.39972  0.37782  0.10227  Biso   1.000  H
  H153     1.0000 0.50588  0.50424  0.24468  Biso   1.000  H
  H154     1.0000 0.44862  0.47099  0.26934  Biso   1.000  H
  H155     1.0000 0.55259  0.52565  0.25847  Biso   1.000  H
  H156     1.0000 0.45717  0.40049  0.00180  Biso   1.000  H
  H157     1.0000 0.47436  0.53107  0.17026  Biso   1.000  H
  H158     1.0000 0.37786  0.39983  0.90915  Biso   1.000  H
  H159     1.0000 0.47099  0.44465  0.74454  Biso   1.000  H
  H160     1.0000 0.54918  0.52739  0.73372  Biso   1.000  H
  H161     1.0000 0.49258  0.49151  0.75659  Biso   1.000  H
  H162     1.0000 0.45866  0.05649  0.99615  Biso   1.000  H
  H163     1.0000 0.47353  0.94242  0.83073  Biso   1.000  H
  H164     1.0000 0.59278  0.97274  0.09723  Biso   1.000  H
  H165     1.0000 0.60077  0.99867  0.01619  Biso   1.000  H
  H166     1.0000 0.39839  0.02142  0.09649  Biso   1.000  H
  H167     1.0000 0.49353  0.00131  0.24369  Biso   1.000  H
  H168     1.0000 0.55008  0.02102  0.26693  Biso   1.000  H
  H169     1.0000 0.47279  0.02743  0.25468  Biso   1.000  H
  H170     1.0000 0.59849  0.05673  0.00568  Biso   1.000  H
  H171     1.0000 0.47002  0.94303  0.17192  Biso   1.000  H
  H172     1.0000 0.62295  0.02208  0.90513  Biso   1.000  H
  H173     1.0000 0.39994  0.02124  0.89790  Biso   1.000  H
  H174     1.0000 0.39729  0.99874  0.98189  Biso   1.000  H
  H175     1.0000 0.55416  0.02664  0.74389  Biso   1.000  H
  H176     1.0000 0.45054  0.97854  0.73035  Biso   1.000  H
  H177     1.0000 0.50736  0.00137  0.75651  Biso   1.000  H
  Zr1      1.0000 0.92780  0.46390  0.00013  Biso   1.000  Zr
  Zr2      1.0000 0.00081  0.54722  0.89741  Biso   1.000  Zr
  Zr3      1.0000 0.99950  0.54226  0.11311  Biso   1.000  Zr
  Zr4      1.0000 0.00065  0.45335  0.10299  Biso   1.000  Zr
  Zr5      1.0000 0.07264  0.53613  0.00032  Biso   1.000  Zr
  Zr6      1.0000 0.99956  0.45713  0.88726  Biso   1.000  Zr
  Zr7      1.0000 0.53486  0.46294  0.00079  Biso   1.000  Zr
  Zr8      1.0000 0.45234  0.45311  0.89744  Biso   1.000  Zr
  Zr9      1.0000 0.45589  0.45617  0.11345  Biso   1.000  Zr
  Zr10     1.0000 0.54542  0.54571  0.10377  Biso   1.000  Zr
  Zr11     1.0000 0.46370  0.53610  0.99985  Biso   1.000  Zr
  Zr12     1.0000 0.54329  0.54245  0.88682  Biso   1.000  Zr
  Zr13     1.0000 0.53567  0.07129  0.99985  Biso   1.000  Zr
  Zr14     1.0000 0.54645  0.99850  0.89711  Biso   1.000  Zr
  Zr15     1.0000 0.54288  0.00009  0.11330  Biso   1.000  Zr
  Zr16     1.0000 0.45214  0.99866  0.10310  Biso   1.000  Zr
  Zr17     1.0000 0.46348  0.92690  0.00075  Biso   1.000  Zr
  Zr18     1.0000 0.45717  0.99956  0.88706  Biso   1.000  Zr
  O1       1.0000 0.03052  0.55166  0.00354  Biso   1.000  O
  O2       1.0000 0.10453  0.58556  0.08442  Biso   1.000  O
  O3       1.0000 0.10391  0.51506  0.07951  Biso   1.000  O
  O4       1.0000 0.10420  0.58843  0.92089  Biso   1.000  O
  O5       1.0000 0.05879  0.59658  0.85572  Biso   1.000  O
  O6       1.0000 0.99902  0.53334  0.76170  Biso   1.000  O
  O7       1.0000 0.94166  0.53213  0.84230  Biso   1.000  O
  O8       1.0000 0.94096  0.41119  0.83794  Biso   1.000  O
  O9       1.0000 0.89625  0.48295  0.91790  Biso   1.000  O
  O10      1.0000 0.89582  0.41542  0.91368  Biso   1.000  O
  O11      1.0000 0.89567  0.48033  0.08651  Biso   1.000  O
  O12      1.0000 0.89611  0.41325  0.08224  Biso   1.000  O
  O13      1.0000 0.94154  0.40947  0.15783  Biso   1.000  O
  O14      1.0000 0.94072  0.52962  0.16248  Biso   1.000  O
  O15      1.0000 0.96959  0.48336  0.08901  Biso   1.000  O
  O16      1.0000 0.95989  0.53151  0.00422  Biso   1.000  O
  O17      1.0000 0.99968  0.59852  0.92962  Biso   1.000  O
  O18      1.0000 0.00151  0.59937  0.08263  Biso   1.000  O
  O19      1.0000 0.00145  0.40196  0.91781  Biso   1.000  O
  O20      1.0000 0.96970  0.48620  0.91143  Biso   1.000  O
  O21      1.0000 0.04050  0.52184  0.87572  Biso   1.000  O
  O22      1.0000 0.05902  0.46458  0.85228  Biso   1.000  O
  O23      1.0000 0.00072  0.47068  0.76193  Biso   1.000  O
  O24      1.0000 0.10453  0.51858  0.91609  Biso   1.000  O
  O25      1.0000 0.00061  0.52992  0.23839  Biso   1.000  O
  O26      1.0000 0.99886  0.46545  0.23886  Biso   1.000  O
  O27      1.0000 0.04043  0.51835  0.12487  Biso   1.000  O
  O28      1.0000 0.05904  0.59422  0.14793  Biso   1.000  O
  O29      1.0000 0.05851  0.46159  0.14490  Biso   1.000  O
  O30      1.0000 0.99931  0.40081  0.07080  Biso   1.000  O
  O31      1.0000 0.95984  0.42832  0.99612  Biso   1.000  O
  O32      1.0000 0.03047  0.47854  0.99701  Biso   1.000  O
  O33      1.0000 0.44703  0.47775  0.00420  Biso   1.000  O
  O34      1.0000 0.41391  0.51833  0.08351  Biso   1.000  O
  O35      1.0000 0.48493  0.58838  0.07843  Biso   1.000  O
  O36      1.0000 0.41130  0.51515  0.92053  Biso   1.000  O
  O37      1.0000 0.40283  0.46135  0.85594  Biso   1.000  O
  O38      1.0000 0.46604  0.46509  0.76184  Biso   1.000  O
  O39      1.0000 0.46726  0.40880  0.84205  Biso   1.000  O
  O40      1.0000 0.58782  0.52763  0.83730  Biso   1.000  O
  O41      1.0000 0.51637  0.41258  0.91804  Biso   1.000  O
  O42      1.0000 0.58415  0.47915  0.91526  Biso   1.000  O
  O43      1.0000 0.51802  0.41454  0.08791  Biso   1.000  O
  O44      1.0000 0.58534  0.48185  0.08451  Biso   1.000  O
  O45      1.0000 0.59035  0.53232  0.15735  Biso   1.000  O
  O46      1.0000 0.46553  0.40695  0.15694  Biso   1.000  O
  O47      1.0000 0.51511  0.48495  0.09211  Biso   1.000  O
  O48      1.0000 0.46840  0.42830  0.00269  Biso   1.000  O
  O49      1.0000 0.40074  0.40042  0.93105  Biso   1.000  O
  O50      1.0000 0.39933  0.40056  0.08276  Biso   1.000  O
  O51      1.0000 0.51326  0.48317  0.91173  Biso   1.000  O
  O52      1.0000 0.47783  0.51807  0.87659  Biso   1.000  O
  O53      1.0000 0.53453  0.59314  0.85084  Biso   1.000  O
  O54      1.0000 0.52882  0.52908  0.76226  Biso   1.000  O
  O55      1.0000 0.48128  0.58563  0.91646  Biso   1.000  O
  O56      1.0000 0.46791  0.46806  0.23945  Biso   1.000  O
  O57      1.0000 0.53239  0.53052  0.23910  Biso   1.000  O
  O58      1.0000 0.48139  0.52188  0.12265  Biso   1.000  O
  O59      1.0000 0.40763  0.46673  0.15410  Biso   1.000  O
  O60      1.0000 0.57006  0.52888  0.99745  Biso   1.000  O
  O61      1.0000 0.52194  0.55173  0.99697  Biso   1.000  O
  O62      1.0000 0.52170  0.96919  0.00334  Biso   1.000  O
  O63      1.0000 0.48215  0.89560  0.08541  Biso   1.000  O
  O64      1.0000 0.41177  0.89510  0.07940  Biso   1.000  O
  O65      1.0000 0.48332  0.89460  0.92249  Biso   1.000  O
  O66      1.0000 0.53583  0.94006  0.85453  Biso   1.000  O
  O67      1.0000 0.53387  0.00138  0.76216  Biso   1.000  O
  O68      1.0000 0.59194  0.05786  0.84396  Biso   1.000  O
  O69      1.0000 0.46639  0.05826  0.84410  Biso   1.000  O
  O70      1.0000 0.58657  0.10300  0.91719  Biso   1.000  O
  O71      1.0000 0.51922  0.10318  0.91240  Biso   1.000  O
  O72      1.0000 0.58426  0.10381  0.08694  Biso   1.000  O
  O73      1.0000 0.51670  0.10338  0.08288  Biso   1.000  O
  O74      1.0000 0.46627  0.05823  0.15647  Biso   1.000  O
  O75      1.0000 0.58911  0.05897  0.16239  Biso   1.000  O
  O76      1.0000 0.51336  0.02969  0.08971  Biso   1.000  O
  O77      1.0000 0.57068  0.03992  0.00490  Biso   1.000  O
  O78      1.0000 0.59943  0.00017  0.92562  Biso   1.000  O
  O79      1.0000 0.59809  0.99821  0.07960  Biso   1.000  O
  O80      1.0000 0.39982  0.99842  0.91867  Biso   1.000  O
  O81      1.0000 0.51631  0.02977  0.90874  Biso   1.000  O
  O82      1.0000 0.48138  0.95871  0.87827  Biso   1.000  O
  O83      1.0000 0.40833  0.94126  0.84468  Biso   1.000  O
  O84      1.0000 0.46990  0.00027  0.76123  Biso   1.000  O
  O85      1.0000 0.41353  0.89563  0.91651  Biso   1.000  O
  O86      1.0000 0.52943  0.99910  0.23862  Biso   1.000  O
  O87      1.0000 0.46731  0.00178  0.23807  Biso   1.000  O
  O88      1.0000 0.47842  0.95922  0.12412  Biso   1.000  O
  O89      1.0000 0.53622  0.94115  0.14888  Biso   1.000  O
  O90      1.0000 0.40455  0.94057  0.14656  Biso   1.000  O
  O91      1.0000 0.40097  0.00052  0.07337  Biso   1.000  O
  O92      1.0000 0.46987  0.03990  0.99679  Biso   1.000  O
  O93      1.0000 0.44661  0.96876  0.99689  Biso   1.000  O
  P1       1.0000 0.63212  0.66213  0.09674  Biso   1.000  P
  O94      1.0000 0.62357  0.68165  0.01291  Biso   1.000  O
  H178     1.0000 0.62148  0.66632  0.96659  Biso   1.000  H
  O95      1.0000 0.63588  0.68941  0.17931  Biso   1.000  O
  H179     1.0000 0.64067  0.67847  0.22636  Biso   1.000  H
  O96      1.0000 0.59478  0.61606  0.11031  Biso   1.000  O
  C265     1.0000 0.67695  0.66138  0.08359  Biso   1.000  C
  H180     1.0000 0.70027  0.69019  0.07509  Biso   1.000  H
  H181     1.0000 0.68230  0.64917  0.13607  Biso   1.000  H
  N1       1.0000 0.67373  0.63794  0.01261  Biso   1.000  N
  H182     1.0000 0.65188  0.61098  0.02057  Biso   1.000  H
  C266     1.0000 0.70990  0.63728  0.00205  Biso   1.000  C
  H183     1.0000 0.71525  0.62507  0.05446  Biso   1.000  H
  H184     1.0000 0.73326  0.66612  0.99349  Biso   1.000  H
  C267     1.0000 0.70653  0.61274  0.92762  Biso   1.000  C
  O97      1.0000 0.68535  0.61058  0.86936  Biso   1.000  O
  O98      1.0000 0.72743  0.59236  0.92485  Biso   1.000  O
  H185     1.0000 0.71334  0.56941  0.89294  Biso   1.000  H
