data_image0
_cell_length_a       39.97
_cell_length_b       40
_cell_length_c       16.58
_cell_angle_alpha    90
_cell_angle_beta     90
_cell_angle_gamma    120

_symmetry_space_group_name_H-M    "P 1"
_symmetry_int_tables_number       1

loop_
  _symmetry_equiv_pos_as_xyz
  'x, y, z'

loop_
  _atom_site_label
  _atom_site_fract_x
  _atom_site_fract_y
  _atom_site_fract_z
  _atom_site_type_symbol
  C1        0.35550  0.51936  0.17272   C
  C2        0.36579  0.49095  0.18439   C
  C3        0.34641  0.46237  0.24301   C
  C4        0.31768  0.46256  0.29004   C
  C5        0.30746  0.49121  0.27943   C
  C6        0.32661  0.51937  0.21949   C
  C7        0.34513  0.46045  0.75782   C
  C8        0.36318  0.48763  0.81960   C
  C9        0.35244  0.51565  0.83258   C
  C10       0.32437  0.51653  0.78451   C
  C11       0.30644  0.48972  0.72164   C
  C12       0.31719  0.46153  0.70953   C
  C13       0.11558  0.46300  0.75526   C
  C14       0.12498  0.49025  0.81695   C
  C15       0.16389  0.51754  0.83093   C
  C16       0.19273  0.51760  0.78390   C
  C17       0.18357  0.49070  0.72111   C
  C18       0.14446  0.46321  0.70804   C
  C19       0.11554  0.46016  0.24163   C
  C20       0.12454  0.48768  0.18065   C
  C21       0.16323  0.51612  0.16833   C
  C22       0.19226  0.51709  0.21626   C
  C23       0.18348  0.48995  0.27839   C
  C24       0.14462  0.46134  0.28986   C
  C25       0.27609  0.49082  0.67237   C
  C26       0.27651  0.49090  0.58665   C
  C27       0.30816  0.49341  0.54146   C
  C28       0.24569  0.49152  0.71262   C
  C29       0.24532  0.49069  0.54338   C
  C30       0.21491  0.49111  0.32776   C
  C31       0.21445  0.49104  0.41344   C
  C32       0.18533  0.49359  0.45863   C
  C33       0.24613  0.49203  0.28752   C
  C34       0.24536  0.49074  0.45682   C
  C35       0.27654  0.49153  0.32803   C
  C36       0.27669  0.49119  0.41372   C
  C37       0.30825  0.49357  0.45907   C
  C38       0.21479  0.49117  0.67222   C
  C39       0.21442  0.49111  0.58648   C
  C40       0.18538  0.49372  0.54103   C
  C41       0.53832  0.88426  0.24498   C
  C42       0.51093  0.87511  0.18361   C
  C43       0.48357  0.83626  0.16930   C
  C44       0.48340  0.80723  0.21585   C
  C45       0.51029  0.81614  0.27859   C
  C46       0.53795  0.85519  0.29177   C
  C47       0.53815  0.88375  0.75893   C
  C48       0.51023  0.87426  0.81930   C
  C49       0.48196  0.83547  0.83072   C
  C50       0.48163  0.80680  0.78264   C
  C51       0.50925  0.81607  0.72126   C
  C52       0.53758  0.85507  0.71044   C
  C53       0.53740  0.65271  0.75624   C
  C54       0.51001  0.63462  0.81766   C
  C55       0.48279  0.64631  0.83198   C
  C56       0.48266  0.67509  0.78507   C
  C57       0.50944  0.69284  0.72196   C
  C58       0.53707  0.68134  0.70908   C
  C59       0.53938  0.65369  0.24280   C
  C60       0.51203  0.63562  0.18136   C
  C61       0.48427  0.64669  0.16817   C
  C62       0.48371  0.67500  0.21588   C
  C63       0.51055  0.69282  0.27876   C
  C64       0.53852  0.68175  0.29097   C
  C65       0.50878  0.78488  0.67216   C
  C66       0.50909  0.78528  0.58638   C
  C67       0.50662  0.81431  0.54083   C
  C68       0.50811  0.75387  0.71264   C
  C69       0.50954  0.75437  0.54336   C
  C70       0.50961  0.72337  0.32775   C
  C71       0.50937  0.72306  0.41359   C
  C72       0.50646  0.69136  0.45909   C
  C73       0.50911  0.75383  0.28729   C
  C74       0.50973  0.75435  0.45669   C
  C75       0.50954  0.78480  0.32747   C
  C76       0.50943  0.78522  0.41329   C
  C77       0.50674  0.81423  0.45838   C
  C78       0.50878  0.72340  0.67264   C
  C79       0.50895  0.72305  0.58680   C
  C80       0.50622  0.69133  0.54158   C
  C81       0.11557  0.65233  0.24479   C
  C82       0.12500  0.63461  0.18286   C
  C83       0.16393  0.64637  0.16859   C
  C84       0.19275  0.67512  0.21566   C
  C85       0.18355  0.69268  0.27880   C
  C86       0.14443  0.68094  0.29207   C
  C87       0.11547  0.65440  0.75781   C
  C88       0.12470  0.63635  0.81945   C
  C89       0.16351  0.64719  0.83229   C
  C90       0.19242  0.67536  0.78433   C
  C91       0.18346  0.69332  0.72165   C
  C92       0.14444  0.68244  0.70964   C
  C93       0.34675  0.88429  0.75532   C
  C94       0.36592  0.87516  0.81462   C
  C95       0.35525  0.83642  0.82727   C
  C96       0.32627  0.80744  0.78084   C
  C97       0.30730  0.81636  0.72031   C
  C98       0.31783  0.85527  0.70882   C
  C99       0.34459  0.88397  0.23992   C
  C100      0.36364  0.87469  0.18061   C
  C101      0.35354  0.83603  0.16950   C
  C102      0.32520  0.80725  0.21739   C
  C103      0.30645  0.81631  0.27818   C
  C104      0.31646  0.85516  0.28825   C
  C105      0.21483  0.72374  0.67233   C
  C106      0.21439  0.72335  0.58658   C
  C107      0.18535  0.69164  0.54142   C
  C108      0.24601  0.75411  0.71248   C
  C109      0.24526  0.75456  0.54315   C
  C110      0.27598  0.78502  0.32751   C
  C111      0.27634  0.78548  0.41322   C
  C112      0.30794  0.81469  0.45830   C
  C113      0.24566  0.75390  0.28729   C
  C114      0.24518  0.75452  0.45657   C
  C115      0.21474  0.72341  0.32774   C
  C116      0.21434  0.72314  0.41349   C
  C117      0.18540  0.69150  0.45901   C
  C118      0.27639  0.78505  0.67191   C
  C119      0.27657  0.78547  0.58619   C
  C120      0.30807  0.81464  0.54072   C
  C121      0.65171  0.53574  0.24702   C
  C122      0.63152  0.50711  0.18899   C
  C123      0.64115  0.47825  0.17671   C
  C124      0.67024  0.47791  0.22217   C
  C125      0.69033  0.50621  0.28129   C
  C126      0.68065  0.53521  0.29272   C
  C127      0.65070  0.53291  0.75255   C
  C128      0.63124  0.50468  0.81184   C
  C129      0.64264  0.47734  0.82704   C
  C130      0.67225  0.47763  0.78224   C
  C131      0.69132  0.50523  0.72126   C
  C132      0.68039  0.53324  0.70812   C
  C133      0.88365  0.53558  0.75296   C
  C134      0.87529  0.50704  0.81119   C
  C135      0.83686  0.47795  0.82318   C
  C136      0.80739  0.47731  0.77737   C
  C137      0.81549  0.50558  0.71834   C
  C138      0.85413  0.53480  0.70700   C
  C139      0.88262  0.53410  0.24851   C
  C140      0.87416  0.50601  0.18917   C
  C141      0.83548  0.47840  0.17371   C
  C142      0.80594  0.47842  0.21810   C
  C143      0.81418  0.50589  0.27920   C
  C144      0.85304  0.53403  0.29282   C
  C145      0.72218  0.50469  0.67278   C
  C146      0.72161  0.50492  0.58708   C
  C147      0.68981  0.50241  0.54237   C
  C148      0.75274  0.50402  0.71245   C
  C149      0.75272  0.50535  0.54319   C
  C150      0.78258  0.50512  0.32733   C
  C151      0.78313  0.50494  0.41298   C
  C152      0.81214  0.50191  0.45757   C
  C153      0.75155  0.50475  0.28749   C
  C154      0.75249  0.50548  0.45674   C
  C155      0.72135  0.50545  0.32865   C
  C156      0.72123  0.50538  0.41425   C
  C157      0.68968  0.50274  0.46007   C
  C158      0.78362  0.50477  0.67120   C
  C159      0.78370  0.50487  0.58562   C
  C160      0.81249  0.50198  0.53987   C
  C161      0.46431  0.11630  0.24836   C
  C162      0.49228  0.12464  0.18863   C
  C163      0.52083  0.16317  0.17527   C
  C164      0.52145  0.19267  0.22094   C
  C165      0.49375  0.18454  0.28145   C
  C166      0.46506  0.14583  0.29410   C
  C167      0.46472  0.11608  0.75150   C
  C168      0.49210  0.12461  0.81259   C
  C169      0.51939  0.16327  0.82882   C
  C170      0.51964  0.19277  0.78393   C
  C171      0.49287  0.18449  0.72128   C
  C172      0.46511  0.14563  0.70652   C
  C173      0.46405  0.34755  0.75272   C
  C174      0.49220  0.36730  0.81193   C
  C175      0.52069  0.35726  0.82561   C
  C176      0.52115  0.32820  0.78039   C
  C177      0.49336  0.30858  0.72011   C
  C178      0.46468  0.31863  0.70732   C
  C179      0.46478  0.34818  0.25117   C
  C180      0.49193  0.36695  0.18967   C
  C181      0.51959  0.35601  0.17372   C
  C182      0.52025  0.32700  0.21875   C
  C183      0.49344  0.30828  0.28117   C
  C184      0.46553  0.31920  0.29610   C
  C185      0.49399  0.21619  0.67316   C
  C186      0.49449  0.21598  0.58753   C
  C187      0.49752  0.18711  0.54244   C
  C188      0.49444  0.24717  0.71340   C
  C189      0.49431  0.24688  0.54420   C
  C190      0.49457  0.27759  0.32887   C
  C191      0.49495  0.27817  0.41449   C
  C192      0.49807  0.31011  0.45959   C
  C193      0.49501  0.24709  0.28850   C
  C194      0.49447  0.24692  0.45776   C
  C195      0.49460  0.21624  0.32912   C
  C196      0.49477  0.21601  0.41473   C
  C197      0.49762  0.18711  0.46013   C
  C198      0.49421  0.27767  0.67269   C
  C199      0.49462  0.27812  0.58712   C
  C200      0.49786  0.31005  0.54187   C
  C201      0.88369  0.34791  0.24676   C
  C202      0.87524  0.36824  0.18905   C
  C203      0.83679  0.35899  0.17760   C
  C204      0.80738  0.33003  0.22329   C
  C205      0.81557  0.30965  0.28171   C
  C206      0.85423  0.31904  0.29255   C
  C207      0.88308  0.34809  0.75318   C
  C208      0.87450  0.36816  0.81127   C
  C209      0.83584  0.35753  0.82552   C
  C210      0.80640  0.32796  0.78098   C
  C211      0.81478  0.30835  0.72104   C
  C212      0.85360  0.31859  0.70870   C
  C213      0.65177  0.11597  0.75145   C
  C214      0.63227  0.12424  0.81154   C
  C215      0.64242  0.16276  0.82552   C
  C216      0.67141  0.19235  0.78026   C
  C217      0.69088  0.18432  0.71937   C
  C218      0.68064  0.14559  0.70604   C
  C219      0.65133  0.11726  0.24902   C
  C220      0.63153  0.12557  0.18972   C
  C221      0.64239  0.16420  0.17449   C
  C222      0.67191  0.19380  0.21890   C
  C223      0.69133  0.18571  0.27985   C
  C224      0.68079  0.14689  0.29335   C
  C225      0.78322  0.27746  0.67302   C
  C226      0.78376  0.27805  0.58737   C
  C227      0.81296  0.30986  0.54259   C
  C228      0.75216  0.24695  0.71300   C
  C229      0.75294  0.24701  0.54373   C
  C230      0.72225  0.21736  0.32786   C
  C231      0.72177  0.21674  0.41356   C
  C232      0.68986  0.18773  0.45841   C
  C233      0.75280  0.24847  0.28795   C
  C234      0.75304  0.24731  0.45725   C
  C235      0.78382  0.27857  0.32902   C
  C236      0.78408  0.27860  0.41459   C
  C237      0.81316  0.31008  0.46029   C
  C238      0.72181  0.21613  0.67203   C
  C239      0.72157  0.21609  0.58641   C
  C240      0.68978  0.18742  0.54072   C
  C241      0.09391  0.49097  0.86555   C
  C242      0.09370  0.60506  0.86926   C
  C243      0.09392  0.60272  0.13462   C
  C244      0.90587  0.50535  0.14284   C
  C245      0.90662  0.39925  0.13964   C
  C246      0.90609  0.40057  0.85753   C
  C247      0.09342  0.48792  0.13113   C
  C248      0.90673  0.50744  0.86052   C
  C249      0.50888  0.60231  0.86537   C
  C250      0.39446  0.48785  0.86934   C
  C251      0.39787  0.49181  0.13676   C
  C252      0.49174  0.39843  0.14163   C
  C253      0.60012  0.50708  0.14026   C
  C254      0.59865  0.50374  0.85803   C
  C255      0.51155  0.60419  0.13176   C
  C256      0.49187  0.39849  0.86057   C
  C257      0.39802  0.90632  0.86252   C
  C258      0.51003  0.90526  0.86936   C
  C259      0.50992  0.90619  0.13550   C
  C260      0.59932  0.09378  0.14317   C
  C261      0.49177  0.09316  0.13924   C
  C262      0.49256  0.09299  0.85954   C
  C263      0.39536  0.90575  0.13166   C
  C264      0.60129  0.09277  0.86089   C
  H1        0.37084  0.54150  0.12718   H
  H2        0.35420  0.44006  0.25076   H
  H3        0.30242  0.44002  0.33498   H
  H4        0.31905  0.54184  0.21106   H
  H5        0.35348  0.43865  0.74815   H
  H6        0.36680  0.53682  0.88033   H
  H7        0.31653  0.53873  0.79430   H
  H8        0.30296  0.43996  0.66233   H
  H9        0.08529  0.44184  0.74473   H
  H10       0.17095  0.53878  0.87862   H
  H11       0.22291  0.53926  0.79432   H
  H12       0.13687  0.44159  0.66087   H
  H13       0.08546  0.43805  0.25079   H
  H14       0.16991  0.53759  0.12131   H
  H15       0.22222  0.53964  0.20713   H
  H16       0.13742  0.43959  0.33660   H
  H17       0.24521  0.49062  0.77842   H
  H18       0.16321  0.49647  0.42616   H
  H19       0.33312  0.49618  0.57390   H
  H20       0.24589  0.49142  0.22172   H
  H21       0.16333  0.49680  0.57324   H
  H22       0.33328  0.49647  0.42669   H
  H23       0.55960  0.91446  0.25584   H
  H24       0.46230  0.82940  0.12171   H
  H25       0.46164  0.77713  0.20510   H
  H26       0.55960  0.86256  0.33883   H
  H27       0.56021  0.91393  0.75106   H
  H28       0.46024  0.82837  0.87744   H
  H29       0.45930  0.77672  0.79118   H
  H30       0.55971  0.86267  0.66434   H
  H31       0.55867  0.64371  0.74597   H
  H32       0.46148  0.63199  0.87955   H
  H33       0.46088  0.68344  0.79558   H
  H34       0.55867  0.69543  0.66186   H
  H35       0.56138  0.64554  0.25163   H
  H36       0.46305  0.63249  0.12039   H
  H37       0.46177  0.68317  0.20577   H
  H38       0.56028  0.69604  0.33781   H
  H39       0.50871  0.75430  0.77846   H
  H40       0.50346  0.66630  0.42678   H
  H41       0.50362  0.83641  0.57298   H
  H42       0.51024  0.75428  0.22151   H
  H43       0.50294  0.66617  0.57398   H
  H44       0.50374  0.83624  0.42586   H
  H45       0.08525  0.64307  0.25549   H
  H46       0.17100  0.63229  0.12065   H
  H47       0.22295  0.68376  0.20496   H
  H48       0.13681  0.69486  0.33945   H
  H49       0.08529  0.64600  0.74823   H
  H50       0.17042  0.63283  0.87987   H
  H51       0.22249  0.68325  0.79406   H
  H52       0.13698  0.69660  0.66249   H
  H53       0.35473  0.91440  0.74685   H
  H54       0.37036  0.82965  0.87343   H
  H55       0.31847  0.77740  0.79011   H
  H56       0.30268  0.86253  0.66356   H
  H57       0.35228  0.91406  0.24730   H
  H58       0.36860  0.82915  0.12341   H
  H59       0.31783  0.77726  0.20924   H
  H60       0.30146  0.86253  0.33365   H
  H61       0.24575  0.75456  0.77828   H
  H62       0.33281  0.83691  0.42572   H
  H63       0.16330  0.66662  0.57388   H
  H64       0.24526  0.75425  0.22150   H
  H65       0.33309  0.83682  0.57299   H
  H66       0.16341  0.66633  0.42687   H
  H67       0.64458  0.55851  0.25513   H
  H68       0.62525  0.45612  0.13145   H
  H69       0.67729  0.45511  0.21311   H
  H70       0.69650  0.55777  0.33724   H
  H71       0.64213  0.55449  0.74206   H
  H72       0.62749  0.45561  0.87344   H
  H73       0.68032  0.45567  0.79290   H
  H74       0.69563  0.55550  0.66268   H
  H75       0.91349  0.55850  0.74501   H
  H76       0.83072  0.45591  0.86856   H
  H77       0.77758  0.45433  0.78618   H
  H78       0.86074  0.55735  0.66248   H
  H79       0.91268  0.55597  0.25894   H
  H80       0.82919  0.45681  0.12716   H
  H81       0.77595  0.45639  0.20696   H
  H82       0.85985  0.55619  0.33840   H
  H83       0.75337  0.50461  0.77828   H
  H84       0.83389  0.49860  0.42467   H
  H85       0.66479  0.49927  0.57513   H
  H86       0.75172  0.50559  0.22168   H
  H87       0.83453  0.49880  0.57188   H
  H88       0.66461  0.49996  0.42807   H
  H89       0.44186  0.08639  0.25794   H
  H90       0.54250  0.16937  0.12893   H
  H91       0.54404  0.22252  0.21098   H
  H92       0.44293  0.13912  0.33972   H
  H93       0.44351  0.08597  0.73950   H
  H94       0.54055  0.16957  0.87637   H
  H95       0.54140  0.22276  0.79580   H
  H96       0.44358  0.13880  0.65946   H
  H97       0.44154  0.35498  0.74352   H
  H98       0.54244  0.37282  0.87173   H
  H99       0.54369  0.32084  0.79038   H
  H100      0.44245  0.30305  0.66196   H
  H101      0.44338  0.35684  0.26318   H
  H102      0.54067  0.37094  0.12608   H
  H103      0.54223  0.31905  0.20698   H
  H104      0.44408  0.30439  0.34326   H
  H105      0.49327  0.24668  0.77917   H
  H106      0.50153  0.33531  0.42716   H
  H107      0.50073  0.16522  0.57489   H
  H108      0.49394  0.24651  0.22271   H
  H109      0.50113  0.33520  0.57430   H
  H110      0.50087  0.16518  0.42784   H
  H111      0.91354  0.35476  0.25435   H
  H112      0.83058  0.37504  0.13272   H
  H113      0.77755  0.32325  0.21485   H
  H114      0.86089  0.30291  0.33650   H
  H115      0.91311  0.35594  0.74378   H
  H116      0.82949  0.37317  0.87116   H
  H117      0.77642  0.32032  0.79103   H
  H118      0.86041  0.30285  0.66407   H
  H119      0.64421  0.08606  0.74146   H
  H120      0.62701  0.16889  0.87212   H
  H121      0.67880  0.22221  0.79072   H
  H122      0.69602  0.13897  0.66017   H
  H123      0.64338  0.08728  0.25937   H
  H124      0.62696  0.17043  0.12813   H
  H125      0.67966  0.22372  0.20783   H
  H126      0.69628  0.14017  0.33874   H
  H127      0.75242  0.24636  0.77882   H
  H128      0.66470  0.16599  0.42579   H
  H129      0.83499  0.33476  0.57536   H
  H130      0.75330  0.24844  0.22211   H
  H131      0.66456  0.16543  0.57282   H
  H132      0.83537  0.33514  0.42818   H
  H133      0.94362  0.40041  0.99621   H
  H134      0.05629  0.52974  0.82730   H
  H135      0.02702  0.61924  0.10089   H
  H136      0.00137  0.60164  0.01874   H
  H137      0.02100  0.39965  0.09430   H
  H138      0.99884  0.49182  0.24429   H
  H139      0.97861  0.52857  0.26654   H
  H140      0.97337  0.44502  0.25584   H
  H141      0.94369  0.54322  0.00415   H
  H142      0.05617  0.52620  0.17334   H
  H143      0.02153  0.62132  0.90638   H
  H144      0.00117  0.39947  0.98164   H
  H145      0.02699  0.40760  0.89975   H
  H146      0.97358  0.52838  0.74455   H
  H147      0.97874  0.45007  0.73368   H
  H148      0.99898  0.50691  0.75618   H
  H149      0.59776  0.53908  0.99810   H
  H150      0.46984  0.52623  0.82871   H
  H151      0.39741  0.39856  0.01794   H
  H152      0.39972  0.37782  0.10227   H
  H153      0.50588  0.50424  0.24468   H
  H154      0.44862  0.47099  0.26934   H
  H155      0.55259  0.52565  0.25847   H
  H156      0.45717  0.40049  0.00180   H
  H157      0.47436  0.53107  0.17026   H
  H158      0.37786  0.39983  0.90915   H
  H159      0.47099  0.44465  0.74454   H
  H160      0.54918  0.52739  0.73372   H
  H161      0.49258  0.49151  0.75659   H
  H162      0.45866  0.05649  0.99615   H
  H163      0.47353  0.94242  0.83073   H
  H164      0.59278  0.97274  0.09723   H
  H165      0.60077  0.99867  0.01619   H
  H166      0.39839  0.02142  0.09649   H
  H167      0.49353  0.00131  0.24369   H
  H168      0.55008  0.02102  0.26693   H
  H169      0.47279  0.02743  0.25468   H
  H170      0.59849  0.05673  0.00568   H
  H171      0.47002  0.94303  0.17192   H
  H172      0.62295  0.02208  0.90513   H
  H173      0.39994  0.02124  0.89790   H
  H174      0.39729  0.99874  0.98189   H
  H175      0.55416  0.02664  0.74389   H
  H176      0.45054  0.97854  0.73035   H
  H177      0.50736  0.00137  0.75651   H
  Zr1       0.92780  0.46390  0.00013   Zr
  Zr2       0.00081  0.54722  0.89741   Zr
  Zr3       0.99950  0.54226  0.11311   Zr
  Zr4       0.00065  0.45335  0.10299   Zr
  Zr5       0.07264  0.53613  0.00032   Zr
  Zr6       0.99956  0.45713  0.88726   Zr
  Zr7       0.53486  0.46294  0.00079   Zr
  Zr8       0.45234  0.45311  0.89744   Zr
  Zr9       0.45589  0.45617  0.11345   Zr
  Z0        0.54542  0.54571  0.10377   Zr
  Zr11      0.46370  0.53610  0.99985   Zr
  Z1        0.54329  0.54245  0.88682   Zr
  Zr13      0.53567  0.07129  0.99985   Zr
  Zr14      0.54645  0.99850  0.89711   Zr
  Zr15      0.54288  0.00009  0.11330   Zr
  Zr16      0.45214  0.99866  0.10310   Zr
  Zr17      0.46348  0.92690  0.00075   Zr
  Zr18      0.45717  0.99956  0.88706   Zr
  O1        0.03052  0.55166  0.00354   O
  O2        0.10453  0.58556  0.08442   O
  O3        0.10391  0.51506  0.07951   O
  O4        0.10420  0.58843  0.92089   O
  O5        0.05879  0.59658  0.85572   O
  O6        0.99902  0.53334  0.76170   O
  O7        0.94166  0.53213  0.84230   O
  O8        0.94096  0.41119  0.83794   O
  O9        0.89625  0.48295  0.91790   O
  O10       0.89582  0.41542  0.91368   O
  O11       0.89567  0.48033  0.08651   O
  O12       0.89611  0.41325  0.08224   O
  O13       0.94154  0.40947  0.15783   O
  O14       0.94072  0.52962  0.16248   O
  O15       0.96959  0.48336  0.08901   O
  O16       0.95989  0.53151  0.00422   O
  O17       0.99968  0.59852  0.92962   O
  O18       0.00151  0.59937  0.08263   O
  O19       0.00145  0.40196  0.91781   O
  O20       0.96970  0.48620  0.91143   O
  O21       0.04050  0.52184  0.87572   O
  O22       0.05902  0.46458  0.85228   O
  O23       0.00072  0.47068  0.76193   O
  O24       0.10453  0.51858  0.91609   O
  O25       0.00061  0.52992  0.23839   O
  O26       0.99886  0.46545  0.23886   O
  O27       0.04043  0.51835  0.12487   O
  O28       0.05904  0.59422  0.14793   O
  O29       0.05851  0.46159  0.14490   O
  O30       0.99931  0.40081  0.07080   O
  O31       0.95984  0.42832  0.99612   O
  O32       0.03047  0.47854  0.99701   O
  O33       0.44703  0.47775  0.00420   O
  O34       0.41391  0.51833  0.08351   O
  O35       0.48493  0.58838  0.07843   O
  O36       0.41130  0.51515  0.92053   O
  O37       0.40283  0.46135  0.85594   O
  O38       0.46604  0.46509  0.76184   O
  O39       0.46726  0.40880  0.84205   O
  O40       0.58782  0.52763  0.83730   O
  O41       0.51637  0.41258  0.91804   O
  O42       0.58415  0.47915  0.91526   O
  O43       0.51802  0.41454  0.08791   O
  O44       0.58534  0.48185  0.08451   O
  O45       0.59035  0.53232  0.15735   O
  O46       0.46553  0.40695  0.15694   O
  O47       0.51511  0.48495  0.09211   O
  O48       0.46840  0.42830  0.00269   O
  O49       0.40074  0.40042  0.93105   O
  O50       0.39933  0.40056  0.08276   O
  O52       0.51326  0.48317  0.91173   O
  O53       0.47783  0.51807  0.87659   O
  O54       0.53453  0.59314  0.85084   O
  O55       0.52882  0.52908  0.76226   O
  O56       0.48128  0.58563  0.91646   O
  O57       0.46791  0.46806  0.23945   O
  O58       0.53239  0.53052  0.23910   O
  O59       0.48139  0.52188  0.12265   O
  O60       0.40763  0.46673  0.15410   O
  O63       0.57006  0.52888  0.99745   O
  O64       0.52194  0.55173  0.99697   O
  O65       0.52170  0.96919  0.00334   O
  O66       0.48215  0.89560  0.08541   O
  O67       0.41177  0.89510  0.07940   O
  O68       0.48332  0.89460  0.92249   O
  O69       0.53583  0.94006  0.85453   O
  O70       0.53387  0.00138  0.76216   O
  O71       0.59194  0.05786  0.84396   O
  O72       0.46639  0.05826  0.84410   O
  O73       0.58657  0.10300  0.91719   O
  O74       0.51922  0.10318  0.91240   O
  O75       0.58426  0.10381  0.08694   O
  O76       0.51670  0.10338  0.08288   O
  O77       0.46627  0.05823  0.15647   O
  O78       0.58911  0.05897  0.16239   O
  O79       0.51336  0.02969  0.08971   O
  O80       0.57068  0.03992  0.00490   O
  O81       0.59943  0.00017  0.92562   O
  O82       0.59809  0.99821  0.07960   O
  O83       0.39982  0.99842  0.91867   O
  O84       0.51631  0.02977  0.90874   O
  O85       0.48138  0.95871  0.87827   O
  O86       0.40833  0.94126  0.84468   O
  O87       0.46990  0.00027  0.76123   O
  O88       0.41353  0.89563  0.91651   O
  O89       0.52943  0.99910  0.23862   O
  O90       0.46731  0.00178  0.23807   O
  O91       0.47842  0.95922  0.12412   O
  O92       0.53622  0.94115  0.14888   O
  O93       0.40455  0.94057  0.14656   O
  O94       0.40097  0.00052  0.07337   O
  O95       0.46987  0.03990  0.99679   O
  O96       0.44661  0.96876  0.99689   O
